[TITLE]


[JUNCTIONS]
;ID              	Elev        	Demand      	Pattern         
 J511            	344.7506672 	27.95797214 	DMA2_pat        	;
 J411            	29.363518   	21.13742273 	DMA1_pat        	;
 J414            	112.7296624 	22.96397088 	DMA1_pat        	;
 J415            	213.2546    	0           	                	;
 J416            	139.763784  	0           	                	;
 J417            	122.6377992 	30.69978784 	DMA1_pat        	;
 J418            	122.6706076 	0           	                	;
 J419            	132.87402   	0           	                	;
 J310            	170.0787456 	32.27491861 	DMA4_pat        	;
 J311            	183.562998  	28.09629101 	DMA4_pat        	;
 J312            	224.6719232 	1.79713961  	DMA4_pat        	;
 J313            	221.9816344 	16.40645232 	DMA4_pat        	;
 J314            	49.0157496  	34.18210249 	DMA1_pat        	;
 J315            	52.5918652  	31.3235122  	DMA1_pat        	;
 J316            	42.5853032  	14.80171184 	DMA1_pat        	;
 J318            	176.0826828 	38.11829255 	DMA4_pat        	;
 J319            	128.9042036 	34.53185925 	DMA4_pat        	;
 J210            	22.9986884  	10.97333479 	DMA1_pat        	;
 J211            	36.9750668  	37.62708951 	DMA1_pat        	;
 J212            	25.8202108  	14.4245766  	DMA1_pat        	;
 J214            	28.4448828  	20.79840155 	DMA1_pat        	;
 J217            	36.0236232  	30.39752734 	DMA1_pat        	;
 J218            	25.1968512  	2.120158012 	DMA1_pat        	;
 J219            	170.60368   	23.47669995 	DMA5_pat        	;
 J110            	52.2309728  	18.57268006 	DMA1_pat        	;
 J420            	131.2007916 	0           	                	;
 J421            	121.6863556 	24.67493324 	DMA1_pat        	;
 J422            	127.3294004 	0           	                	;
 J1153           	72.6377976  	10.45305242 	DMA1_pat        	;
 J1154           	47.9330724  	11.06918688 	DMA1_pat        	;
 J1155           	50.9842536  	32.88167087 	DMA1_pat        	;
 J425            	211.3517128 	0           	                	;
 J426            	238.5498764 	0           	                	;
 J1157           	72.8674564  	39.07487472 	DMA1_pat        	;
 J427            	221.948826  	0           	                	;
 J1158           	92.68373    	8.98977651  	DMA1_pat        	;
 J428            	53.149608   	27.54460661 	DMA1_pat        	;
 J429            	41.2073504  	38.8335528  	DMA1_pat        	;
 J320            	153.3136532 	9.666008274 	DMA4_pat        	;
 J321            	146.2926556 	21.15519952 	DMA4_pat        	;
 J322            	157.5459368 	4.2150042   	DMA4_pat        	;
 J324            	139.0419992 	39.60272871 	DMA4_pat        	;
 J1056           	25.0656176  	26.79410366 	DMA1_pat        	;
 J327            	162.9921312 	0.622279521 	DMA4_pat        	;
 J1058           	44.5538072  	22.79220162 	DMA1_pat        	;
 J328            	149.9015796 	3.964665858 	DMA4_pat        	;
 J329            	144.521002  	4.082373165 	DMA4_pat        	;
 J220            	196.8504    	31.65653462 	DMA5_pat        	;
 J221            	252.8543388 	11.2727971  	DMA4_pat        	;
 J225            	43.7335972  	1.808899382 	DMA1_pat        	;
 J226            	36.417324   	11.72027141 	DMA1_pat        	;
 J50             	235.564312  	15.13751417 	DMA4_pat        	;
 J51             	237.5984328 	11.92624089 	DMA4_pat        	;
 J53             	262.4672    	37.58802444 	DMA5_pat        	;
 J54             	262.4672    	38.82665789 	DMA5_pat        	;
 J128            	279.7244184 	15.90482462 	DMA2_pat        	;
 J55             	232.93964   	11.02710414 	DMA5_pat        	;
 J129            	206.200794  	6.357639277 	DMA2_pat        	;
 J56             	236.22048   	6.45195508  	DMA5_pat        	;
 J57             	193.56956   	25.62160284 	DMA5_pat        	;
 J58             	249.34384   	16.24953363 	DMA5_pat        	;
 J59             	187.00788   	16.35628589 	DMA5_pat        	;
 J1160           	81.7257244  	28.24260214 	DMA1_pat        	;
 J1161           	82.84121    	12.92622262 	DMA1_pat        	;
 J431            	55.446196   	25.09029225 	DMA1_pat        	;
 J432            	65.2230992  	8.224807053 	DMA1_pat        	;
 J433            	89.730974   	7.37095359  	DMA1_pat        	;
 J434            	54.0682432  	23.11615275 	DMA1_pat        	;
 J435            	39.862206   	3.198397892 	DMA1_pat        	;
 J436            	58.0052512  	18.14755478 	DMA1_pat        	;
 J438            	34.2191612  	35.89039467 	DMA1_pat        	;
 J1169           	181.8241528 	10.35696258 	DMA3_pat        	;
 J439            	58.3333352  	31.1147628  	DMA1_pat        	;
 J330            	191.10893   	15.01435678 	DMA4_pat        	;
 J331            	194.4225784 	11.47825451 	DMA4_pat        	;
 J332            	118.11024   	31.47883975 	DMA1_pat        	;
 J333            	84.317588   	25.03337722 	DMA1_pat        	;
 J334            	96.0629952  	24.87089872 	DMA1_pat        	;
 J335            	82.2834672  	16.97798017 	DMA1_pat        	;
 J336            	78.1168004  	3.882310984 	DMA1_pat        	;
 J337            	72.5393724  	22.23173855 	DMA1_pat        	;
 J231            	235.892396  	27.51964227 	DMA4_pat        	;
 J232            	229.0354404 	36.20692051 	DMA4_pat        	;
 J233            	243.5367532 	0           	                	;
 J234            	210.1706104 	0.713266762 	DMA2_pat        	;
 J236            	190.28872   	21.53116427 	DMA5_pat        	;
 J237            	239.9606376 	36.30385164 	DMA5_pat        	;
 J130            	178.8713968 	17.04950804 	DMA2_pat        	;
 J131            	288.877962  	26.86431471 	DMA2_pat        	;
 J132            	244.586622  	19.91020154 	DMA2_pat        	;
 J133            	228.2808472 	20.35732836 	DMA2_pat        	;
 J60             	180.4462    	18.34600753 	DMA5_pat        	;
 J134            	264.763788  	14.00667545 	DMA2_pat        	;
 J135            	229.6588    	16.04193642 	DMA2_pat        	;
 J62             	196.8504    	10.68837557 	DMA5_pat        	;
 J64             	262.4672    	2.202951831 	DMA5_pat        	;
 J65             	262.4672    	9.66260653  	DMA5_pat        	;
 J66             	236.22048   	38.79688358 	DMA5_pat        	;
 J67             	259.18636   	2.413859328 	DMA5_pat        	;
 J68             	239.50132   	15.46567175 	DMA5_pat        	;
 J69             	232.93964   	14.46327591 	DMA5_pat        	;
 J1170           	178.9370136 	19.41252424 	DMA3_pat        	;
 J441            	226.37796   	0           	                	;
 J444            	96.6535464  	18.80088884 	DMA1_pat        	;
 J341            	48.8517076  	10.19446578 	DMA1_pat        	;
 J344            	179.461948  	24.9148835  	DMA3_pat        	;
 J345            	163.9435748 	21.48002853 	DMA3_pat        	;
 J347            	178.477696  	6.193624489 	DMA3_pat        	;
 J348            	204.0026312 	37.19073485 	DMA4_pat        	;
 J349            	119.4553844 	25.9351476  	DMA4_pat        	;
 J241            	229.6588    	20.05418998 	DMA5_pat        	;
 J242            	213.2546    	15.47280442 	DMA5_pat        	;
 J243            	196.8504    	4.254855698 	DMA5_pat        	;
 J244            	229.6588    	31.06655327 	DMA5_pat        	;
 J245            	232.93964   	18.2136874  	DMA5_pat        	;
 J246            	180.4462    	29.86559494 	DMA5_pat        	;
 J247            	187.00788   	23.62079813 	DMA5_pat        	;
 J248            	177.16536   	32.99771388 	DMA5_pat        	;
 J249            	164.042     	0.743315407 	DMA5_pat        	;
 J142            	18.1430452  	8.336058377 	DMA1_pat        	;
 J143            	20.669292   	2.930465636 	DMA1_pat        	;
 J70             	229.6588    	4.178682469 	DMA5_pat        	;
 J144            	13.6811028  	13.14369582 	DMA1_pat        	;
 J71             	252.62468   	5.082025678 	DMA5_pat        	;
 J72             	246.063     	0.009565097 	DMA5_pat        	;
 J73             	262.4672    	21.27096822 	DMA5_pat        	;
 J74             	246.063     	26.03643148 	DMA5_pat        	;
 J76             	229.6588    	21.55706134 	DMA5_pat        	;
 J77             	249.34384   	32.78697099 	DMA5_pat        	;
 J78             	198.6876704 	3.245107719 	DMA4_pat        	;
 J350            	110.9580088 	7.605106261 	DMA3_pat        	;
 J351            	83.6942284  	26.90257508 	DMA4_pat        	;
 J352            	156.003942  	17.99840886 	DMA4_pat        	;
 J353            	74.2782176  	14.14739017 	DMA4_pat        	;
 J354            	61.2860912  	5.943121541 	DMA4_pat        	;
 J355            	94.7178508  	27.91234134 	DMA4_pat        	;
 J358            	73.162732   	36.80401625 	DMA4_pat        	;
 J359            	57.6443588  	21.01015034 	DMA4_pat        	;
 J250            	219.81628   	3.552123348 	DMA5_pat        	;
 J251            	246.6863596 	30.02573248 	DMA2_pat        	;
 J252            	275.0000088 	15.92336955 	DMA2_pat        	;
 J253            	245.0459396 	18.30220564 	DMA2_pat        	;
 J254            	244.7178556 	19.50252387 	DMA2_pat        	;
 J257            	262.4672    	8.227440656 	DMA2_pat        	;
 J154            	143.3398996 	13.06609605 	DMA1_pat        	;
 J155            	145.7021044 	3.781466033 	DMA1_pat        	;
 J82             	232.5131308 	23.3710816  	DMA4_pat        	;
 J156            	151.4435744 	6.73139106  	DMA1_pat        	;
 J83             	200.3608988 	36.75767218 	DMA4_pat        	;
 J84             	143.7664088 	3.880555254 	DMA5_pat        	;
 J85             	147.6378    	17.58846337 	DMA5_pat        	;
 J159            	122.7362244 	10.815776   	DMA1_pat        	;
 J86             	164.042     	34.57547825 	DMA5_pat        	;
 J87             	139.8622092 	29.74669886 	DMA5_pat        	;
 J89             	224.0485636 	10.81559311 	DMA2_pat        	;
 J360            	67.9461964  	26.69389883 	DMA4_pat        	;
 J361            	87.5000028  	10.16915395 	DMA4_pat        	;
 J362            	143.2414744 	3.56223709  	DMA4_pat        	;
 J363            	236.9750732 	0           	                	;
 J364            	213.2546    	0           	                	;
 J365            	97.8674572  	31.30961265 	DMA1_pat        	;
 J366            	47.4409464  	11.77912506 	DMA1_pat        	;
 J1208           	140.2231016 	9.323274449 	DMA4_pat        	;
 J367            	44.619424   	19.03924796 	DMA1_pat        	;
 J369            	66.5026268  	10.08882915 	DMA1_pat        	;
 J160            	143.3398996 	13.4968543  	DMA1_pat        	;
 J161            	74.8359604  	1.780551593 	DMA1_pat        	;
 J162            	120.9973792 	19.11666484 	DMA1_pat        	;
 J163            	53.149608   	8.163630718 	DMA1_pat        	;
 J164            	56.8897656  	34.2579831  	DMA1_pat        	;
 J91             	210.2690356 	23.32495701 	DMA2_pat        	;
 J165            	54.7572196  	29.91395077 	DMA1_pat        	;
 J166            	78.576118   	36.76824318 	DMA1_pat        	;
 J167            	78.4448844  	13.11684773 	DMA1_pat        	;
 J94             	100.88583   	21.51455796 	DMA3_pat        	;
 J95             	74.0157504  	3.197465161 	DMA1_pat        	;
 J96             	98.4252     	25.13758734 	DMA1_pat        	;
 J97             	112.1719196 	16.24808881 	DMA1_pat        	;
 J976            	20.669292   	38.05766488 	DMA1_pat        	;
 J571            	252.9855724 	4.542064448 	DMA2_pat        	;
 J572            	250.656176  	36.59237719 	DMA2_pat        	;
 J573            	267.7821608 	24.57639269 	DMA2_pat        	;
 J574            	220.9973824 	13.77897874 	DMA2_pat        	;
 J575            	246.9488268 	5.914005627 	DMA2_pat        	;
 J576            	265.091872  	19.0195874  	DMA2_pat        	;
 J370            	67.1259864  	8.694301189 	DMA1_pat        	;
 J371            	225.7546004 	0           	                	;
 J372            	76.115488   	5.168038326 	DMA1_pat        	;
 J373            	89.3044648  	1.144628547 	DMA1_pat        	;
 J374            	44.947508   	13.68647353 	DMA1_pat        	;
 J375            	74.5406848  	21.70187278 	DMA1_pat        	;
 J376            	39.9606312  	36.57293609 	DMA1_pat        	;
 J377            	43.0446208  	21.32850507 	DMA1_pat        	;
 J1219           	47.5065632  	16.10483192 	DMA1_pat        	;
 J379            	33.62861    	33.57289952 	DMA1_pat        	;
 J171            	28.9042004  	32.73996854 	DMA1_pat        	;
 J172            	20.50525    	26.64557957 	DMA1_pat        	;
 J173            	42.65092    	28.60574636 	DMA1_pat        	;
 J174            	20.0459324  	39.49800651 	DMA1_pat        	;
 J175            	22.4409456  	13.46512308 	DMA1_pat        	;
 J177            	43.1102376  	19.62321227 	DMA1_pat        	;
 J179            	49.2454084  	16.36424156 	DMA1_pat        	;
 J580            	344.7506672 	27.5511906  	DMA2_pat        	;
 J486            	282.5131324 	7.096583642 	DMA2_pat        	;
 J487            	259.18636   	16.75853176 	DMA2_pat        	;
 J488            	292.5196944 	21.52390358 	DMA2_pat        	;
 J489            	278.9370168 	32.28181352 	DMA2_pat        	;
 J381            	118.1758568 	21.43421485 	DMA4_pat        	;
 J1223           	11.4173232  	16.94140239 	DMA1_pat        	;
 J382            	231.0367528 	20.17229965 	DMA4_pat        	;
 J384            	139.4685084 	0           	                	;
 J385            	251.312344  	0           	                	;
 J180            	28.7729668  	19.40998207 	DMA1_pat        	;
 J181            	35.8923896  	26.97810819 	DMA1_pat        	;
 J1024           	19.1272972  	35.13235671 	DMA1_pat        	;
 J183            	43.5695552  	14.68201105 	DMA1_pat        	;
 J1025           	28.2480324  	11.98674056 	DMA1_pat        	;
 J186            	30.7742792  	11.60512455 	DMA1_pat        	;
 J187            	32.1850404  	5.956234681 	DMA1_pat        	;
 J188            	27.9199484  	20.99465964 	DMA1_pat        	;
 J189            	24.8687672  	8.846958551 	DMA1_pat        	;
 J490            	314.4357056 	23.16253338 	DMA2_pat        	;
 J491            	252.3950212 	14.40239219 	DMA2_pat        	;
 J492            	310.5971228 	34.71130984 	DMA2_pat        	;
 J493            	254.6588008 	18.94174988 	DMA2_pat        	;
 J494            	307.6115584 	7.554025392 	DMA2_pat        	;
 J495            	299.048566  	27.10660594 	DMA2_pat        	;
 J496            	298.55644   	29.6170489  	DMA2_pat        	;
 J497            	346.5551292 	24.32773693 	DMA2_pat        	;
 J498            	295.6693008 	30.99299536 	DMA2_pat        	;
 J500            	247.7690368 	6.409250515 	DMA2_pat        	;
 J499            	237.0078816 	32.00903471 	DMA2_pat        	;
 J501            	265.6496148 	8.028933032 	DMA2_pat        	;
 J502            	265.7152316 	37.91259738 	DMA2_pat        	;
 J503            	326.935706  	2.609422444 	DMA2_pat        	;
 J504            	218.8648364 	2.437872642 	DMA2_pat        	;
 J394            	231.3976452 	5.486667396 	DMA2_pat        	;
 J509            	327.8871496 	15.04221076 	DMA2_pat        	;
 J399            	246.063     	0           	                	;
 J401            	229.6588    	0           	                	;
 J406            	235.3674616 	0           	                	;
 J295            	185.1049928 	6.885932192 	DMA4_pat        	;
 J407            	223.09712   	0           	                	;
 J296            	101.4107644 	28.32526793 	DMA4_pat        	;
 J408            	26.0170612  	21.1215114  	DMA1_pat        	;
 J297            	259.350402  	22.23053148 	DMA4_pat        	;
 J298            	244.2913464 	8.588280472 	DMA4_pat        	;
 J191            	18.8976384  	18.54515527 	DMA1_pat        	;
 J303            	165.4199528 	29.57498445 	DMA4_pat        	;
 J192            	40.682416   	29.8110026  	DMA1_pat        	;
 J193            	42.6181116  	15.80805809 	DMA1_pat        	;
 J305            	154.5603724 	35.78614799 	DMA4_pat        	;
 J194            	44.1601064  	29.56123121 	DMA1_pat        	;
 J195            	50.4921276  	3.509254177 	DMA1_pat        	;
 J196            	43.799214   	25.14548813 	DMA1_pat        	;
 J308            	109.0551216 	28.25439848 	DMA1_pat        	;
 J198            	60.8267736  	0.621419956 	DMA1_pat        	;
 J200            	51.67323    	17.08449467 	DMA1_pat        	;
 J199            	53.3464584  	15.92894766 	DMA1_pat        	;
 J201            	117.6509224 	10.90884817 	DMA1_pat        	;
 J202            	34.1535444  	39.04636234 	DMA1_pat        	;
 J203            	36.1876652  	31.80328469 	DMA1_pat        	;
 J204            	70.5708684  	27.58365338 	DMA1_pat        	;
 J205            	54.6587944  	16.54775229 	DMA1_pat        	;
 J206            	46.3254608  	29.10477706 	DMA1_pat        	;
 J207            	61.8766424  	10.9830462  	DMA1_pat        	;
 J208            	36.90945    	14.1300706  	DMA1_pat        	;
 J101            	93.996066   	17.17614031 	DMA1_pat        	;
 J102            	121.2598464 	37.44537109 	DMA1_pat        	;
 J109            	57.3162748  	4.816525836 	DMA1_pat        	;
 J1              	55.1837288  	25.59643733 	DMA1_pat        	;
 J2              	39.2716548  	13.78320349 	DMA1_pat        	;
 J3              	95.2099768  	4.138227437 	DMA1_pat        	;
 J4              	68.5039392  	7.346739087 	DMA1_pat        	;
 J5              	74.63911    	3.07833132  	DMA1_pat        	;
 J6              	50.03281    	17.1485058  	DMA1_pat        	;
 J7              	81.7257244  	38.0120158  	DMA1_pat        	;
 J8              	102.2637828 	21.47841912 	DMA1_pat        	;
 J9              	104.6259876 	19.59012766 	DMA1_pat        	;
 J10             	47.9658808  	38.55470208 	DMA1_pat        	;
 J11             	60.4658812  	8.630527817 	DMA1_pat        	;
 J12             	96.0301868  	15.01788654 	DMA1_pat        	;
 J13             	105.1181136 	15.6857054  	DMA1_pat        	;
 J14             	124.3766444 	0           	                	;
 J15             	337.4015856 	0           	                	;
 J16             	291.6338676 	5.486667396 	DMA2_pat        	;
 J17             	271.48951   	0           	                	;
 J18             	278.7401664 	0           	                	;
 J19             	298.3595896 	5.486667396 	DMA2_pat        	;
 J20             	262.4672    	0           	                	;
 J21             	262.4672    	5.486667396 	DMA2_pat        	;
 J22             	271.4567016 	0           	                	;
 J23             	249.2126064 	0           	                	;
 J25             	308.8254692 	2.555506784 	DMA2_pat        	;
 J26             	250.492134  	29.96086177 	DMA2_pat        	;
 J27             	269.2913472 	27.75853176 	DMA2_pat        	;
 J28             	147.6378    	19.6969165  	DMA2_pat        	;
 J29             	160.76116   	6.159296243 	DMA2_pat        	;
 J30             	236.2532884 	8.865814408 	DMA2_pat        	;
 J31             	228.9370152 	12.92375361 	DMA2_pat        	;
 J32             	147.6378    	31.08608581 	DMA2_pat        	;
 J33             	157.48032   	1.991696846 	DMA2_pat        	;
 J34             	164.042     	20.52686638 	DMA2_pat        	;
 J35             	222.3753352 	29.99800651 	DMA2_pat        	;
 J36             	167.5853072 	31.72729434 	DMA2_pat        	;
 J37             	217.1587996 	12.88657229 	DMA2_pat        	;
 J38             	154.19948   	38.54528329 	DMA2_pat        	;
 J24             	113.2874052 	31.86983796 	DMA1_pat        	;
 J39             	150.5249392 	26.74060865 	DMA1_pat        	;
 J40             	41.994752   	35.86660082 	DMA1_pat        	;
 J123            	126.0170644 	34.70359193 	DMA3_pat        	;
 J140            	131.0367496 	16.51007718 	DMA3_pat        	;
 J141            	135.990818  	4.877263243 	DMA3_pat        	;
 J157            	103.3136516 	37.80939317 	DMA3_pat        	;
 J158            	84.9081392  	31.59365741 	DMA3_pat        	;
 J168            	131.9225764 	27.59095066 	DMA3_pat        	;
 J170            	153.7729708 	15.91395077 	DMA3_pat        	;
 J176            	166.1417376 	0.645817324 	DMA3_pat        	;
 J178            	193.1430508 	6.647755952 	DMA3_pat        	;
 J184            	184.0223156 	6.507937375 	DMA3_pat        	;
 J185            	143.4055164 	20.19812355 	DMA3_pat        	;
 J190            	191.8963316 	16.09060317 	DMA3_pat        	;
 J197            	137.3359624 	4.205658583 	DMA3_pat        	;
 J213            	170.8333388 	10.94165844 	DMA3_pat        	;
 J215            	248.5564384 	25.48134533 	DMA3_pat        	;
 J216            	174.0813704 	33.64638429 	DMA3_pat        	;
 J227            	173.5236276 	19.73250667 	DMA3_pat        	;
 J238            	144.8818944 	7.440780567 	DMA3_pat        	;
 J239            	142.6837316 	35.52926223 	DMA3_pat        	;
 J255            	115.8464604 	14.77310802 	DMA3_pat        	;
 J256            	131.2336    	0           	                	;
 J258            	168.1102416 	30.5449541  	DMA3_pat        	;
 J260            	106.7257252 	8.638465193 	DMA3_pat        	;
 J265            	166.8963308 	17.7125352  	DMA3_pat        	;
 J266            	130.6758572 	9.352829291 	DMA3_pat        	;
 J267            	73.1955404  	34.80679615 	DMA4_pat        	;
 J61             	236.22048   	24.18896082 	DMA5_pat        	;
 J92             	236.22048   	14.83722886 	DMA5_pat        	;
 J268            	228.6089312 	15.43437946 	DMA4_pat        	;
 J278            	342.1588036 	34.10166795 	DMA2_pat        	;
 J281            	274.6719248 	23.21833278 	DMA2_pat        	;
 J283            	308.5958104 	36.91391419 	DMA2_pat        	;
 J284            	253.8713992 	20.49423899 	DMA2_pat        	;
 J136            	268.372712  	13.08846337 	DMA2_pat        	;
 J137            	29.8884524  	34.41329236 	DMA1_pat        	;
 J145            	155.7086664 	10.26551812 	DMA3_pat        	;
 J118            	246.063     	10.28457515 	DMA5_pat        	;
 J52             	179.461948  	7.080891774 	DMA4_pat        	;
 J81             	164.042     	13.74850946 	DMA2_pat        	;
 J88             	147.6378    	0.099290395 	DMA2_pat        	;
 J90             	275.59056   	29.41599913 	DMA2_pat        	;
 J93             	213.2546    	99.9627821  	DMA2_pat        	;
 J147            	223.09712   	11.03937599 	DMA2_pat        	;
 J148            	164.042     	27.85584696 	DMA2_pat        	;
 J149            	131.2336    	16.04316178 	DMA2_pat        	;
 J150            	196.8504    	32.15927795 	DMA2_pat        	;
 J151            	196.8504    	29.39374154 	DMA2_pat        	;
 J152            	104.98688   	17.34284356 	DMA2_pat        	;
 J153            	196.8504    	3.090054494 	DMA2_pat        	;
 J169            	137.79528   	16.2716632  	DMA2_pat        	;
 J182            	131.2336    	13.44805955 	DMA2_pat        	;
 J222            	104.98688   	28.15637003 	DMA2_pat        	;
 J224            	121.39108   	12.37470281 	DMA2_pat        	;
 J230            	98.4252     	31.65214528 	DMA4_pat        	;
 J235            	173.88452   	6.013478919 	DMA4_pat        	;
 J240            	285.43308   	23.49784191 	DMA2_pat        	;
 J269            	183.72704   	0           	                	;
 J273            	183.72704   	0           	                	;
 J274            	183.72704   	0           	                	;
 J276            	183.72704   	0           	                	;
 J280            	183.72704   	0           	                	;
 J285            	183.72704   	0           	                	;
 J287            	131.2336    	0           	                	;
 J288            	131.2336    	0           	                	;
 J289            	131.2336    	0           	                	;
 J290            	131.2336    	0           	                	;
 J291            	213.2546    	0           	                	;
 J292            	131.2336    	0           	                	;
 J299            	131.2336    	0           	                	;
 J300            	131.2336    	0           	                	;
 J301            	144.35696   	0           	                	;
 J302            	144.35696   	0           	                	;
 J304            	144.35696   	0           	                	;
 J306            	144.35696   	0           	                	;
 J307            	144.35696   	0           	                	;
 J309            	144.35696   	0           	                	;
 J317            	144.35696   	0           	                	;
 J323            	144.35696   	0           	                	;
 N1              	152.55906   	27.43333699 	DMA3_pat        	;
 N2              	148.293968  	25.60444785 	DMA3_pat        	;
 N3              	150.590556  	16.46000219 	DMA3_pat        	;
 N4              	149.27822   	21.9466696  	DMA3_pat        	;
 N5              	147.965884  	12.80222393 	DMA3_pat        	;
 N6              	153.215228  	18.28889133 	DMA3_pat        	;
 N7              	151.902892  	21.9466696  	DMA3_pat        	;
 N8              	150.590556  	12.80222393 	DMA3_pat        	;
 N9              	147.6378    	15.54555763 	DMA3_pat        	;
 N10             	147.965884  	12.80222393 	DMA3_pat        	;
 N11             	155.7086664 	0           	                	;

[RESERVOIRS]
;ID              	Head        	Pattern         
 R1              	193.569553805774	                	;

[TANKS]
;ID              	Elevation   	InitLevel   	MinLevel    	MaxLevel    	Diameter    	MinVol      	VolCurve
 T3              	370.406836  	9.84252     	0           	22.14567    	45.0459332  	0           	                	;
 T1              	234.58006   	9.84252     	0           	21.32546    	102.690292  	0           	                	;
 T7              	334.64568   	8.2021      	0           	16.4042     	23.4251976  	0           	                	;
 T6              	333.00526   	17.060368   	0           	18.04462    	27.3293972  	0           	                	;
 T5              	347.112872  	3.28084     	0           	14.76378    	39.0091876  	0           	                	;
 T2              	213.2546    	1.64042     	0           	19.356956   	68.1758552  	0           	                	;
 T4              	434.7113    	8.2021      	0           	15.419948   	38.1889776  	0           	                	;

[PIPES]
;ID              	Node1           	Node2           	Length      	Diameter    	Roughness   	MinorLoss   	Status
 P1              	J175            	J174            	173.556436  	8           	72.4549     	0           	Open  	;
 P10             	J335            	J336            	259.9409532 	3           	108.0095    	0           	Open  	;
 P100            	J159            	J160            	353.9370192 	16          	76.5142     	0           	Open  	;
 P1000           	J341            	J204            	358.4973868 	8           	76.9461     	0           	Open  	;
 P101            	J166            	J162            	798.4580308 	10          	84.2085     	0           	Open  	;
 P1016           	J22             	J233            	540.5840068 	12          	85.2382     	0           	Open  	;
 P102            	J109            	J408            	4200.459452 	20          	92.9472     	0           	Open  	;
 P1022           	J281            	J283            	658.6614384 	4           	99.5808     	0           	Open  	;
 P1023           	J278            	J283            	447.3097256 	4           	95.6885     	0           	Open  	;
 P1024           	J580            	J278            	1232.349121 	4           	89.6207     	0           	Open  	;
 P1025           	J575            	J132            	128.5433112 	3           	97.7766     	0           	Open  	;
 P1026           	J132            	J493            	149.6391124 	3           	88.4504     	0           	Open  	;
 P1027           	J486            	J488            	270.0787488 	2           	92.0106     	0           	Open  	;
 P1028           	J489            	J486            	31.3976388  	2           	86.9934     	0           	Open  	;
 P1029           	J489            	J492            	402.2966008 	3           	91.3396     	0           	Open  	;
 P103            	J2              	J1219           	118.0446232 	10          	79.371      	0           	Open  	;
 P1030           	J493            	J489            	312.50001   	3           	104.6083    	0           	Open  	;
 P1031           	J494            	J490            	617.7165552 	6           	84.3741     	0           	Open  	;
 P1032           	J490            	J492            	470.1115636 	6           	98.431      	0           	Open  	;
 P1033           	J492            	J131            	422.5393836 	6           	84.6894     	0           	Open  	;
 P1034           	J254            	J253            	173.4580108 	8           	97.4185     	0           	Open  	;
 P1035           	J253            	J128            	401.8044748 	6           	97.7581     	0           	Open  	;
 P1036           	J131            	J128            	273.3923972 	8           	74.2979     	0           	Open  	;
 P1039           	J573            	J128            	398.2283592 	8           	92.1423     	0           	Open  	;
 P104            	J166            	J167            	108.6286124 	8           	99.8866     	0           	Open  	;
 P1040           	J136            	J573            	96.620738   	6           	94.6888     	0           	Open  	;
 P1041           	J136            	J129            	1008.989534 	4           	112.5082    	0           	Open  	;
 P1042           	J89             	J573            	277.3622136 	6           	76.1502     	0           	Open  	;